pcf
* control data
             restart          estimation
         3      1092         3         0         1
         3         1              single               point         1
   2.000000E+01  -3.000000E+00   3.000000E-01   1.000000E-02        -7
   1.000000E+01   1.000000E+01   1.000000E-03
   1.000000E-01
         -2   1.000000E-02         3         3   1.000000E-02         3
         0         0         0
* singular value decomposition
         1
  10000000    1.000000E-06
1
* parameter groups
aw                     relative              1.0000000000E-02      0.0 switch                2.0000000000E+00      parabolic             1.0000000000E-05      5.0000000000E-01      smaller              
rew                    relative              1.0000000000E-02      0.0 switch                2.0000000000E+00      parabolic             1.0000000000E-05      5.0000000000E-01      smaller              
tew                    relative              1.0000000000E-02      0.0 switch                2.0000000000E+00      parabolic             1.0000000000E-05      5.0000000000E-01      smaller              
* parameter data
pname:p_inst:0_ptype:cn_pstyle:m  log                   factor                9.4500000000E+02      1.0000000000E+02      1.0000000000E+03      aw                    1.0000000000E+00      0.0000000000E+00      1
pname:p_inst:1_ptype:cn_pstyle:m  log                   factor                8.0000000000E+00      2.0000000000E+00      1.2000000000E+01      rew                   1.0000000000E+00      0.0000000000E+00      1          
pname:p_inst:2_ptype:cn_pstyle:m  log                   factor                1.8000000000E+01      6.0000000000E+00      2.9000000000E+01      tew                   1.0000000000E+00      0.0000000000E+00      1          
* observation groups
oname:eta_otype:arr  
* observation data
eta_0                 1.4337196791E-01      1.0000000000E+00      oname:eta_otype:arr  
eta_1                 1.2289027099E-01      1.0000000000E+00      oname:eta_otype:arr  
eta_10                1.8433540009E-01      1.0000000000E+00      oname:eta_otype:arr  
eta_100               3.7029700047E-01      1.0000000000E+00      oname:eta_otype:arr  
eta_1000              1.5546171057E+00      1.0000000000E+00      oname:eta_otype:arr  
eta_1001              1.4198710588E+00      1.0000000000E+00      oname:eta_otype:arr  
eta_1002              9.8062790188E-01      1.0000000000E+00      oname:eta_otype:arr  
eta_1003              1.5376165909E+00      1.0000000000E+00      oname:eta_otype:arr  
eta_1004              1.2127935250E+00      1.0000000000E+00      oname:eta_otype:arr  
eta_1005              1.1442744506E+00      1.0000000000E+00      oname:eta_otype:arr  
eta_1006              3.7713943637E-01      1.0000000000E+00      oname:eta_otype:arr  
eta_1007              6.0715450629E-01      1.0000000000E+00      oname:eta_otype:arr  
eta_1008              8.8075761818E-01      1.0000000000E+00      oname:eta_otype:arr  
eta_1009              1.2925235444E+00      1.0000000000E+00      oname:eta_otype:arr  
eta_101               4.5387208586E-01      1.0000000000E+00      oname:eta_otype:arr  
eta_1010              1.8358350325E+00      1.0000000000E+00      oname:eta_otype:arr  
eta_1011              2.4538688343E+00      1.0000000000E+00      oname:eta_otype:arr  
eta_1012              2.3701851300E+00      1.0000000000E+00      oname:eta_otype:arr  
eta_1013              1.5528799162E+00      1.0000000000E+00      oname:eta_otype:arr  
eta_1014              8.9903572520E-01      1.0000000000E+00      oname:eta_otype:arr  
eta_1015              8.9903572520E-01      1.0000000000E+00      oname:eta_otype:arr  
eta_1016              1.5528799162E+00      1.0000000000E+00      oname:eta_otype:arr  
eta_1017              1.8389366562E+00      1.0000000000E+00      oname:eta_otype:arr  
eta_1018              1.5120146106E+00      1.0000000000E+00      oname:eta_otype:arr  
eta_1019              2.2067240573E+00      1.0000000000E+00      oname:eta_otype:arr  
eta_102               4.5335431741E-01      1.0000000000E+00      oname:eta_otype:arr  
eta_1020              1.4711494048E+00      1.0000000000E+00      oname:eta_otype:arr  
eta_1021              1.8798018620E+00      1.0000000000E+00      oname:eta_otype:arr  
eta_1022              2.3701851300E+00      1.0000000000E+00      oname:eta_otype:arr  
eta_1023              1.5528799162E+00      1.0000000000E+00      oname:eta_otype:arr  
eta_1024              6.1297893530E-01      1.0000000000E+00      oname:eta_otype:arr  
eta_1025              1.1033620536E+00      1.0000000000E+00      oname:eta_otype:arr  
eta_1026              1.5937452218E+00      1.0000000000E+00      oname:eta_otype:arr  
eta_1027              1.4302840992E+00      1.0000000000E+00      oname:eta_otype:arr  
eta_1028              2.3293200240E+00      1.0000000000E+00      oname:eta_otype:arr  
eta_1029              1.8798018620E+00      1.0000000000E+00      oname:eta_otype:arr  
eta_103               3.8900771834E-01      1.0000000000E+00      oname:eta_otype:arr  
eta_1030              2.2884544190E+00      1.0000000000E+00      oname:eta_otype:arr  
eta_1031              1.0991537870E+00      1.0000000000E+00      oname:eta_otype:arr  
eta_1032              1.1384093186E+00      1.0000000000E+00      oname:eta_otype:arr  
eta_1033              1.6879862121E+00      1.0000000000E+00      oname:eta_otype:arr  
eta_1034              1.4131977404E+00      1.0000000000E+00      oname:eta_otype:arr  
eta_1035              8.6362084690E-01      1.0000000000E+00      oname:eta_otype:arr  
eta_1036              7.0659887020E-01      1.0000000000E+00      oname:eta_otype:arr  
eta_1037              6.6734338850E-01      1.0000000000E+00      oname:eta_otype:arr  
eta_1038              9.8138729200E-01      1.0000000000E+00      oname:eta_otype:arr  
eta_1039              8.2436541510E-01      1.0000000000E+00      oname:eta_otype:arr  
eta_104               4.5750911956E-01      1.0000000000E+00      oname:eta_otype:arr  
eta_1040              1.2954312454E+00      1.0000000000E+00      oname:eta_otype:arr  
eta_1041              2.0020301655E+00      1.0000000000E+00      oname:eta_otype:arr  
eta_1042              1.6094751988E+00      1.0000000000E+00      oname:eta_otype:arr  
eta_1043              1.6094751988E+00      1.0000000000E+00      oname:eta_otype:arr  
eta_1044              1.2954312454E+00      1.0000000000E+00      oname:eta_otype:arr  
eta_1045              9.8138729200E-01      1.0000000000E+00      oname:eta_otype:arr  
eta_1046              7.0659887020E-01      1.0000000000E+00      oname:eta_otype:arr  
eta_1047              1.1776648003E+00      1.0000000000E+00      oname:eta_otype:arr  
eta_1048              3.1404392845E-01      1.0000000000E+00      oname:eta_otype:arr  
eta_1049              7.8510983360E-02      1.0000000000E+00      oname:eta_otype:arr  
eta_105               4.8240537201E-01      1.0000000000E+00      oname:eta_otype:arr  
eta_1050              3.5329943510E-01      1.0000000000E+00      oname:eta_otype:arr  
eta_1051              4.3181042844E-01      1.0000000000E+00      oname:eta_otype:arr  
eta_1052              7.0659887020E-01      1.0000000000E+00      oname:eta_otype:arr  
eta_1053              1.0991537870E+00      1.0000000000E+00      oname:eta_otype:arr  
eta_1054              9.4213181030E-01      1.0000000000E+00      oname:eta_otype:arr  
eta_1055              7.4585430200E-01      1.0000000000E+00      oname:eta_otype:arr  
eta_1056              9.0287632860E-01      1.0000000000E+00      oname:eta_otype:arr  
eta_1057              9.8138729200E-01      1.0000000000E+00      oname:eta_otype:arr  
eta_1058              8.2436541510E-01      1.0000000000E+00      oname:eta_otype:arr  
eta_1059              5.8883242510E-01      1.0000000000E+00      oname:eta_otype:arr  
eta_106               9.2177868023E-01      1.0000000000E+00      oname:eta_otype:arr  
eta_1060              3.9255491680E-01      1.0000000000E+00      oname:eta_otype:arr  
eta_1061              3.2330459500E-01      1.0000000000E+00      oname:eta_otype:arr  
eta_1062              6.8702230180E-01      1.0000000000E+00      oname:eta_otype:arr  
eta_1063              2.8289148320E-01      1.0000000000E+00      oname:eta_otype:arr  
eta_1064              2.0206535940E-01      1.0000000000E+00      oname:eta_otype:arr  
eta_1065              2.8289148320E-01      1.0000000000E+00      oname:eta_otype:arr  
eta_1066              6.4660919000E-01      1.0000000000E+00      oname:eta_otype:arr  
eta_1067              3.6371765690E-01      1.0000000000E+00      oname:eta_otype:arr  
eta_1068              2.0206535940E-01      1.0000000000E+00      oname:eta_otype:arr  
eta_1069              2.4247844126E-01      1.0000000000E+00      oname:eta_otype:arr  
eta_107               1.6937880526E+00      1.0000000000E+00      oname:eta_otype:arr  
eta_1070              6.4660919000E-01      1.0000000000E+00      oname:eta_otype:arr  
eta_1071              5.2536995440E-01      1.0000000000E+00      oname:eta_otype:arr  
eta_1072              1.2123922063E-01      1.0000000000E+00      oname:eta_otype:arr  
eta_1073              2.0206535940E-01      1.0000000000E+00      oname:eta_otype:arr  
eta_1074              4.4454383060E-01      1.0000000000E+00      oname:eta_otype:arr  
eta_1075              3.2330459500E-01      1.0000000000E+00      oname:eta_otype:arr  
eta_1076              3.6371765690E-01      1.0000000000E+00      oname:eta_otype:arr  
eta_1077              6.4660919000E-01      1.0000000000E+00      oname:eta_otype:arr  
eta_1078              8.4867459930E-01      1.0000000000E+00      oname:eta_otype:arr  
eta_1079              2.8289148320E-01      1.0000000000E+00      oname:eta_otype:arr  
eta_108               2.1345034912E+00      1.0000000000E+00      oname:eta_otype:arr  
eta_1080              6.8702230180E-01      1.0000000000E+00      oname:eta_otype:arr  
eta_1081              1.6165229750E-01      1.0000000000E+00      oname:eta_otype:arr  
eta_1082              2.8289148320E-01      1.0000000000E+00      oname:eta_otype:arr  
eta_1083              6.4660919000E-01      1.0000000000E+00      oname:eta_otype:arr  
eta_1084              8.8908766120E-01      1.0000000000E+00      oname:eta_otype:arr  
eta_1085              6.8702230180E-01      1.0000000000E+00      oname:eta_otype:arr  
eta_1086              9.2950062330E-01      1.0000000000E+00      oname:eta_otype:arr  
eta_1087              7.6784837570E-01      1.0000000000E+00      oname:eta_otype:arr  
eta_1088              1.0507399088E+00      1.0000000000E+00      oname:eta_otype:arr  
eta_1089              1.2528052682E+00      1.0000000000E+00      oname:eta_otype:arr  
eta_109               3.0630919145E+00      1.0000000000E+00      oname:eta_otype:arr  
eta_1090              1.0911530206E+00      1.0000000000E+00      oname:eta_otype:arr  
eta_1091              5.2536995440E-01      1.0000000000E+00      oname:eta_otype:arr  
eta_11                1.5361283554E-01      1.0000000000E+00      oname:eta_otype:arr  
eta_110               3.7435698451E+00      1.0000000000E+00      oname:eta_otype:arr  
eta_111               6.0969178012E+00      1.0000000000E+00      oname:eta_otype:arr  
eta_112               3.9070705251E+00      1.0000000000E+00      oname:eta_otype:arr  
eta_113               1.8366638070E+00      1.0000000000E+00      oname:eta_otype:arr  
eta_114               2.7520594560E+00      1.0000000000E+00      oname:eta_otype:arr  
eta_115               2.2336626013E+00      1.0000000000E+00      oname:eta_otype:arr  
eta_116               2.0596402705E+00      1.0000000000E+00      oname:eta_otype:arr  
eta_117               2.6289484604E+00      1.0000000000E+00      oname:eta_otype:arr  
eta_118               1.7126965239E+00      1.0000000000E+00      oname:eta_otype:arr  
eta_119               1.3686890919E+00      1.0000000000E+00      oname:eta_otype:arr  
eta_12                1.9457625494E-01      1.0000000000E+00      oname:eta_otype:arr  
eta_120               2.3769340314E+00      1.0000000000E+00      oname:eta_otype:arr  
eta_121               2.9265635015E+00      1.0000000000E+00      oname:eta_otype:arr  
eta_122               2.9234175680E+00      1.0000000000E+00      oname:eta_otype:arr  
eta_123               3.1406696165E+00      1.0000000000E+00      oname:eta_otype:arr  
eta_124               3.5225668192E+00      1.0000000000E+00      oname:eta_otype:arr  
eta_125               3.8486521953E+00      1.0000000000E+00      oname:eta_otype:arr  
eta_126               3.3502048668E+00      1.0000000000E+00      oname:eta_otype:arr  
eta_127               2.8528259087E+00      1.0000000000E+00      oname:eta_otype:arr  
eta_128               2.3565151430E+00      1.0000000000E+00      oname:eta_otype:arr  
eta_129               2.6276793487E+00      1.0000000000E+00      oname:eta_otype:arr  
eta_13                1.4337196791E-01      1.0000000000E+00      oname:eta_otype:arr  
eta_130               3.2810376038E+00      1.0000000000E+00      oname:eta_otype:arr  
eta_131               2.8404796037E+00      1.0000000000E+00      oname:eta_otype:arr  
eta_132               2.8919582336E+00      1.0000000000E+00      oname:eta_otype:arr  
eta_133               3.1068359914E+00      1.0000000000E+00      oname:eta_otype:arr  
eta_134               2.8312198749E+00      1.0000000000E+00      oname:eta_otype:arr  
eta_135               3.2088433590E+00      1.0000000000E+00      oname:eta_otype:arr  
eta_136               5.0177742549E+00      1.0000000000E+00      oname:eta_otype:arr  
eta_137               4.8131487981E+00      1.0000000000E+00      oname:eta_otype:arr  
eta_138               5.3751747531E+00      1.0000000000E+00      oname:eta_otype:arr  
eta_139               4.5102103536E+00      1.0000000000E+00      oname:eta_otype:arr  
eta_14                7.1685983955E-02      1.0000000000E+00      oname:eta_otype:arr  
eta_140               3.4196978179E+00      1.0000000000E+00      oname:eta_otype:arr  
eta_141               3.9823389851E+00      1.0000000000E+00      oname:eta_otype:arr  
eta_142               4.3262004758E+00      1.0000000000E+00      oname:eta_otype:arr  
eta_143               4.1157288104E+00      1.0000000000E+00      oname:eta_otype:arr  
eta_144               2.8443618583E+00      1.0000000000E+00      oname:eta_otype:arr  
eta_145               3.2436877767E+00      1.0000000000E+00      oname:eta_otype:arr  
eta_146               4.9349961067E+00      1.0000000000E+00      oname:eta_otype:arr  
eta_147               5.1172345492E+00      1.0000000000E+00      oname:eta_otype:arr  
eta_148               5.5823327525E+00      1.0000000000E+00      oname:eta_otype:arr  
eta_149               5.0321530594E+00      1.0000000000E+00      oname:eta_otype:arr  
eta_15                2.3553966157E-01      1.0000000000E+00      oname:eta_otype:arr  
eta_150               5.3860147635E+00      1.0000000000E+00      oname:eta_otype:arr  
eta_151               3.4932870969E+00      1.0000000000E+00      oname:eta_otype:arr  
eta_152               2.4293203657E+00      1.0000000000E+00      oname:eta_otype:arr  
eta_153               1.8127456603E+00      1.0000000000E+00      oname:eta_otype:arr  
eta_154               3.5784491926E+00      1.0000000000E+00      oname:eta_otype:arr  
eta_155               3.1893824958E+00      1.0000000000E+00      oname:eta_otype:arr  
eta_156               8.5658606411E-01      1.0000000000E+00      oname:eta_otype:arr  
eta_157               9.7338975958E-01      1.0000000000E+00      oname:eta_otype:arr  
eta_158               2.0667852295E+00      1.0000000000E+00      oname:eta_otype:arr  
eta_159               1.6117689616E+00      1.0000000000E+00      oname:eta_otype:arr  
eta_16                2.0481710979E-01      1.0000000000E+00      oname:eta_otype:arr  
eta_160               2.2509105624E+00      1.0000000000E+00      oname:eta_otype:arr  
eta_161               2.8355388359E+00      1.0000000000E+00      oname:eta_otype:arr  
eta_162               3.3071753473E+00      1.0000000000E+00      oname:eta_otype:arr  
eta_163               4.5956748265E+00      1.0000000000E+00      oname:eta_otype:arr  
eta_164               3.9078140730E+00      1.0000000000E+00      oname:eta_otype:arr  
eta_165               2.3976003756E+00      1.0000000000E+00      oname:eta_otype:arr  
eta_166               3.7523545761E+00      1.0000000000E+00      oname:eta_otype:arr  
eta_167               3.9384625292E+00      1.0000000000E+00      oname:eta_otype:arr  
eta_168               3.5944635553E+00      1.0000000000E+00      oname:eta_otype:arr  
eta_169               3.8326370638E+00      1.0000000000E+00      oname:eta_otype:arr  
eta_17                2.4578052920E-01      1.0000000000E+00      oname:eta_otype:arr  
eta_170               4.2078674958E+00      1.0000000000E+00      oname:eta_otype:arr  
eta_171               2.8684325551E+00      1.0000000000E+00      oname:eta_otype:arr  
eta_172               2.9800308447E+00      1.0000000000E+00      oname:eta_otype:arr  
eta_173               2.1822169660E+00      1.0000000000E+00      oname:eta_otype:arr  
eta_174               2.0330119983E+00      1.0000000000E+00      oname:eta_otype:arr  
eta_175               1.9302284684E+00      1.0000000000E+00      oname:eta_otype:arr  
eta_176               1.5931208089E+00      1.0000000000E+00      oname:eta_otype:arr  
eta_177               2.1300333984E+00      1.0000000000E+00      oname:eta_otype:arr  
eta_178               2.2608955598E+00      1.0000000000E+00      oname:eta_otype:arr  
eta_179               2.4833920446E+00      1.0000000000E+00      oname:eta_otype:arr  
eta_18                2.3553966157E-01      1.0000000000E+00      oname:eta_otype:arr  
eta_180               2.1366503641E+00      1.0000000000E+00      oname:eta_otype:arr  
eta_181               2.1725638263E+00      1.0000000000E+00      oname:eta_otype:arr  
eta_182               1.7749687543E+00      1.0000000000E+00      oname:eta_otype:arr  
eta_183               1.6675329919E+00      1.0000000000E+00      oname:eta_otype:arr  
eta_184               1.9022173071E+00      1.0000000000E+00      oname:eta_otype:arr  
eta_185               2.5309825549E+00      1.0000000000E+00      oname:eta_otype:arr  
eta_186               2.9441770782E+00      1.0000000000E+00      oname:eta_otype:arr  
eta_187               2.5547759085E+00      1.0000000000E+00      oname:eta_otype:arr  
eta_188               2.4457800952E+00      1.0000000000E+00      oname:eta_otype:arr  
eta_189               3.4043747222E+00      1.0000000000E+00      oname:eta_otype:arr  
eta_19                2.5602137127E-01      1.0000000000E+00      oname:eta_otype:arr  
eta_190               2.6032227358E+00      1.0000000000E+00      oname:eta_otype:arr  
eta_191               3.3446862719E+00      1.0000000000E+00      oname:eta_otype:arr  
eta_192               3.1841144774E+00      1.0000000000E+00      oname:eta_otype:arr  
eta_193               3.7088017252E+00      1.0000000000E+00      oname:eta_otype:arr  
eta_194               3.6288794703E+00      1.0000000000E+00      oname:eta_otype:arr  
eta_195               2.7423516773E+00      1.0000000000E+00      oname:eta_otype:arr  
eta_196               2.7832197402E+00      1.0000000000E+00      oname:eta_otype:arr  
eta_197               3.1872029037E+00      1.0000000000E+00      oname:eta_otype:arr  
eta_198               3.7123983733E+00      1.0000000000E+00      oname:eta_otype:arr  
eta_199               4.2377975856E+00      1.0000000000E+00      oname:eta_otype:arr  
eta_2                 8.1926845196E-02      1.0000000000E+00      oname:eta_otype:arr  
eta_20                2.5602137127E-01      1.0000000000E+00      oname:eta_otype:arr  
eta_200               3.7000942714E+00      1.0000000000E+00      oname:eta_otype:arr  
eta_201               3.0142325369E+00      1.0000000000E+00      oname:eta_otype:arr  
eta_202               3.3240885968E+00      1.0000000000E+00      oname:eta_otype:arr  
eta_203               4.6838196601E+00      1.0000000000E+00      oname:eta_otype:arr  
eta_204               3.7943959963E+00      1.0000000000E+00      oname:eta_otype:arr  
eta_205               3.2308608311E+00      1.0000000000E+00      oname:eta_otype:arr  
eta_206               3.9693963675E+00      1.0000000000E+00      oname:eta_otype:arr  
eta_207               3.1072878827E+00      1.0000000000E+00      oname:eta_otype:arr  
eta_208               2.7806468955E+00      1.0000000000E+00      oname:eta_otype:arr  
eta_209               2.9686712525E+00      1.0000000000E+00      oname:eta_otype:arr  
eta_21                2.2529883227E-01      1.0000000000E+00      oname:eta_otype:arr  
eta_210               3.4530118964E+00      1.0000000000E+00      oname:eta_otype:arr  
eta_211               3.9508922965E+00      1.0000000000E+00      oname:eta_otype:arr  
eta_212               4.1593087274E+00      1.0000000000E+00      oname:eta_otype:arr  
eta_213               5.2268756821E+00      1.0000000000E+00      oname:eta_otype:arr  
eta_214               4.2331043674E+00      1.0000000000E+00      oname:eta_otype:arr  
eta_215               3.8808071165E+00      1.0000000000E+00      oname:eta_otype:arr  
eta_216               3.5116348072E+00      1.0000000000E+00      oname:eta_otype:arr  
eta_217               4.1746817386E+00      1.0000000000E+00      oname:eta_otype:arr  
eta_218               3.0347752380E+00      1.0000000000E+00      oname:eta_otype:arr  
eta_219               2.1047127113E+00      1.0000000000E+00      oname:eta_otype:arr  
eta_22                1.2289027099E-01      1.0000000000E+00      oname:eta_otype:arr  
eta_220               2.7665307369E+00      1.0000000000E+00      oname:eta_otype:arr  
eta_221               4.1926304376E+00      1.0000000000E+00      oname:eta_otype:arr  
eta_222               5.1027234793E+00      1.0000000000E+00      oname:eta_otype:arr  
eta_223               5.1943317399E+00      1.0000000000E+00      oname:eta_otype:arr  
eta_224               4.6308305256E+00      1.0000000000E+00      oname:eta_otype:arr  
eta_225               3.6811600484E+00      1.0000000000E+00      oname:eta_otype:arr  
eta_226               2.2611620763E+00      1.0000000000E+00      oname:eta_otype:arr  
eta_227               3.5453174346E+00      1.0000000000E+00      oname:eta_otype:arr  
eta_228               2.8306006133E+00      1.0000000000E+00      oname:eta_otype:arr  
eta_229               3.2696734988E+00      1.0000000000E+00      oname:eta_otype:arr  
eta_23                4.0963421959E-02      1.0000000000E+00      oname:eta_otype:arr  
eta_230               3.2757805061E+00      1.0000000000E+00      oname:eta_otype:arr  
eta_231               2.9572579838E+00      1.0000000000E+00      oname:eta_otype:arr  
eta_232               3.1019865551E+00      1.0000000000E+00      oname:eta_otype:arr  
eta_233               3.7823301926E+00      1.0000000000E+00      oname:eta_otype:arr  
eta_234               3.5550424236E+00      1.0000000000E+00      oname:eta_otype:arr  
eta_235               2.6308993286E+00      1.0000000000E+00      oname:eta_otype:arr  
eta_236               3.1578788901E+00      1.0000000000E+00      oname:eta_otype:arr  
eta_237               3.1148301629E+00      1.0000000000E+00      oname:eta_otype:arr  
eta_238               4.5024738251E+00      1.0000000000E+00      oname:eta_otype:arr  
eta_239               2.4478797542E+00      1.0000000000E+00      oname:eta_otype:arr  
eta_24                4.0963421959E-02      1.0000000000E+00      oname:eta_otype:arr  
eta_240               2.3209737526E+00      1.0000000000E+00      oname:eta_otype:arr  
eta_241               2.7325609099E+00      1.0000000000E+00      oname:eta_otype:arr  
eta_242               3.2259956343E+00      1.0000000000E+00      oname:eta_otype:arr  
eta_243               2.2040327620E+00      1.0000000000E+00      oname:eta_otype:arr  
eta_244               2.2803436409E+00      1.0000000000E+00      oname:eta_otype:arr  
eta_245               3.0634350757E+00      1.0000000000E+00      oname:eta_otype:arr  
eta_246               2.9032675880E+00      1.0000000000E+00      oname:eta_otype:arr  
eta_247               3.3313102776E+00      1.0000000000E+00      oname:eta_otype:arr  
eta_248               4.0324933530E+00      1.0000000000E+00      oname:eta_otype:arr  
eta_249               2.8549544394E+00      1.0000000000E+00      oname:eta_otype:arr  
eta_25                4.0963421959E-02      1.0000000000E+00      oname:eta_otype:arr  
eta_250               2.9300624783E+00      1.0000000000E+00      oname:eta_otype:arr  
eta_251               2.9269528967E+00      1.0000000000E+00      oname:eta_otype:arr  
eta_252               3.2357202263E+00      1.0000000000E+00      oname:eta_otype:arr  
eta_253               2.2976440343E+00      1.0000000000E+00      oname:eta_otype:arr  
eta_254               1.7116728973E+00      1.0000000000E+00      oname:eta_otype:arr  
eta_255               2.6424933518E+00      1.0000000000E+00      oname:eta_otype:arr  
eta_256               2.5536838226E+00      1.0000000000E+00      oname:eta_otype:arr  
eta_257               2.8250275084E+00      1.0000000000E+00      oname:eta_otype:arr  
eta_258               2.5609961445E+00      1.0000000000E+00      oname:eta_otype:arr  
eta_259               4.1303672590E+00      1.0000000000E+00      oname:eta_otype:arr  
eta_26                1.0240855234E-01      1.0000000000E+00      oname:eta_otype:arr  
eta_260               3.0405384324E+00      1.0000000000E+00      oname:eta_otype:arr  
eta_261               4.6911163461E+00      1.0000000000E+00      oname:eta_otype:arr  
eta_262               3.8764325463E+00      1.0000000000E+00      oname:eta_otype:arr  
eta_263               2.8313472615E+00      1.0000000000E+00      oname:eta_otype:arr  
eta_264               2.4716459845E+00      1.0000000000E+00      oname:eta_otype:arr  
eta_265               2.1064643247E+00      1.0000000000E+00      oname:eta_otype:arr  
eta_266               3.0376535821E+00      1.0000000000E+00      oname:eta_otype:arr  
eta_267               2.3794037879E+00      1.0000000000E+00      oname:eta_otype:arr  
eta_268               4.8412781809E+00      1.0000000000E+00      oname:eta_otype:arr  
eta_269               4.0380348194E+00      1.0000000000E+00      oname:eta_otype:arr  
eta_27                1.5361283554E-01      1.0000000000E+00      oname:eta_otype:arr  
eta_270               2.5785167637E+00      1.0000000000E+00      oname:eta_otype:arr  
eta_271               4.0942104862E+00      1.0000000000E+00      oname:eta_otype:arr  
eta_272               2.3627809267E+00      1.0000000000E+00      oname:eta_otype:arr  
eta_273               2.7752623291E+00      1.0000000000E+00      oname:eta_otype:arr  
eta_274               2.2951075772E+00      1.0000000000E+00      oname:eta_otype:arr  
eta_275               1.2557258578E+00      1.0000000000E+00      oname:eta_otype:arr  
eta_276               1.1124172220E+00      1.0000000000E+00      oname:eta_otype:arr  
eta_277               9.1619652770E-01      1.0000000000E+00      oname:eta_otype:arr  
eta_278               1.8957020995E+00      1.0000000000E+00      oname:eta_otype:arr  
eta_279               1.2376939511E+00      1.0000000000E+00      oname:eta_otype:arr  
eta_28                1.7409454524E-01      1.0000000000E+00      oname:eta_otype:arr  
eta_280               1.0381193276E+00      1.0000000000E+00      oname:eta_otype:arr  
eta_281               8.3586161037E-01      1.0000000000E+00      oname:eta_otype:arr  
eta_282               6.8349766103E-01      1.0000000000E+00      oname:eta_otype:arr  
eta_283               3.7038483928E-01      1.0000000000E+00      oname:eta_otype:arr  
eta_284               4.7922762366E-01      1.0000000000E+00      oname:eta_otype:arr  
eta_285               6.9657774159E-01      1.0000000000E+00      oname:eta_otype:arr  
eta_286               7.0093776845E-01      1.0000000000E+00      oname:eta_otype:arr  
eta_287               7.5955139542E-01      1.0000000000E+00      oname:eta_otype:arr  
eta_288               1.5284935503E+00      1.0000000000E+00      oname:eta_otype:arr  
eta_289               2.9109955674E+00      1.0000000000E+00      oname:eta_otype:arr  
eta_29                3.8915249711E-01      1.0000000000E+00      oname:eta_otype:arr  
eta_290               2.8182512724E+00      1.0000000000E+00      oname:eta_otype:arr  
eta_291               1.7790470146E+00      1.0000000000E+00      oname:eta_otype:arr  
eta_292               5.0337546344E-01      1.0000000000E+00      oname:eta_otype:arr  
eta_293               9.0025584596E-01      1.0000000000E+00      oname:eta_otype:arr  
eta_294               1.4150345248E+00      1.0000000000E+00      oname:eta_otype:arr  
eta_295               1.8219765066E+00      1.0000000000E+00      oname:eta_otype:arr  
eta_296               1.8214926355E+00      1.0000000000E+00      oname:eta_otype:arr  
eta_297               1.2829617076E+00      1.0000000000E+00      oname:eta_otype:arr  
eta_298               1.9135186381E+00      1.0000000000E+00      oname:eta_otype:arr  
eta_299               1.8991148441E+00      1.0000000000E+00      oname:eta_otype:arr  
eta_3                 9.2167698768E-02      1.0000000000E+00      oname:eta_otype:arr  
eta_30                3.6867080019E-01      1.0000000000E+00      oname:eta_otype:arr  
eta_300               7.7178702167E-01      1.0000000000E+00      oname:eta_otype:arr  
eta_301               5.1146343057E-01      1.0000000000E+00      oname:eta_otype:arr  